3
 nfi=0 etot=          0.20921778
Ar            6.67103294         -10.61468714          12.63369399
Ar            1.06574059          -3.33432278          -2.59038678
Ar           -1.78412296         -16.52594584           4.61680015
3
 nfi=5 etot=          0.20921778
Ar            6.55370876         -10.57831401          12.60117963
Ar            1.09699812          -3.33249410          -2.63997481
Ar           -1.83705090         -16.49337773           4.57958399
3
 nfi=10 etot=          0.20921778
Ar            6.41291974         -10.53466625          12.55999477
Ar            1.13659099          -3.33020825          -2.70195985
Ar           -1.90888168         -16.45470310           4.53306379
3
 nfi=15 etot=          0.20921778
Ar            6.27213072         -10.49101850          12.52097754
Ar            1.17826770          -3.32792240          -2.76394489
Ar           -1.98449303         -16.41399296           4.48654359
3
 nfi=20 etot=          0.20921778
Ar            6.12352008         -10.44494586          12.48196030
Ar            1.21994441          -3.32563654          -2.82592993
Ar           -2.06010438         -16.37328282           4.44002339
3
 nfi=25 etot=          0.20921778
Ar            5.99055267         -10.40129811          12.44294307
Ar            1.26162112          -3.32335069          -2.88791497
Ar           -2.13193517         -16.33257268           4.39350319
3
 nfi=30 etot=          0.20921778
Ar            5.84194204         -10.35280060          12.39959059
Ar            1.30121400          -3.32106484          -2.94990001
Ar           -2.20754652         -16.29186255           4.34698299
3
 nfi=35 etot=          0.20544490
Ar            5.68548491         -10.30427979          12.35624408
Ar            1.34293264          -3.31891241          -3.01189165
Ar           -2.28317247         -16.25115901           4.30046279
3
 nfi=40 etot=          0.20560280
Ar            5.53666125         -10.25560116          12.31293802
Ar            1.38494705          -3.31676303          -3.07392467
Ar           -2.35890822         -16.21049685           4.25394259
3
 nfi=45 etot=          0.20585123
Ar            5.40332706         -10.20917335          12.27184399
Ar            1.42520268          -3.31485960          -3.13290493
Ar           -2.43096397         -16.16988752           4.20742239
3
 nfi=50 etot=          0.20619888
Ar            5.25404467         -10.16006077          12.22864774
Ar            1.46802562          -3.31308398          -3.19505864
Ar           -2.50701362         -16.12934606           4.16090220
3
 nfi=55 etot=          0.20658693
Ar            5.11236273         -10.11564733          12.18981282
Ar            1.51130677          -3.31155780          -3.25727654
Ar           -2.57945895         -16.08886877           4.11438200
3
 nfi=60 etot=          0.20664699
Ar            4.96255350         -10.06594793          12.14675127
Ar            1.55515909          -3.31029835          -3.31955511
Ar           -2.65211626         -16.05047296           4.06786180
3
 nfi=65 etot=          0.20722758
Ar            4.82037597         -10.01851980          12.10589866
Ar            1.59948029          -3.30921840          -3.38187870
Ar           -2.72876413         -16.01010137           4.02134160
3
 nfi=70 etot=          0.20788676
Ar            4.66991880          -9.96813676          12.06301057
Ar            1.64455252          -3.30851836          -3.44433033
Ar           -2.80575689         -15.97187021           3.97482140
3
 nfi=75 etot=          0.20862501
Ar            4.52700111          -9.91974087          12.02237740
Ar            1.68819295          -3.30829598          -3.50690930
Ar           -2.88314461         -15.93175713           3.92830120
3
 nfi=80 etot=          0.20951741
Ar            4.36780023          -9.86818511          11.97973462
Ar            1.73272213          -3.30860460          -3.56960364
Ar           -2.96102649         -15.89175893           3.88178100
3
 nfi=85 etot=          0.21031007
Ar            4.21605908         